10

C         -3.85163        1.16900        0.00000
H         -2.78163        1.16900        0.00000
H         -4.20830        0.55006       -0.79663
H         -4.20830        2.16836       -0.13770
H         -4.20830        0.78857        0.93432
C         -0.06082        2.40915        0.00000
H          1.00918        2.40915        0.00000
H         -0.41748        1.72947       -0.74547
H         -0.41748        3.39459       -0.21589
H         -0.41748        2.10340        0.96136
